@<TRIPOS>MOLECULE
ZINC04676424
   42    44     0     0     0
SMALL
USER_CHARGES

@<TRIPOS>ATOM
      1 C1         -0.0173    1.4248    0.0099 C.3       1 <0>         0.0039
      2 O1          0.0021   -0.0041    0.0020 O.3       1 <0>        -0.2634
      3 C2         -1.1997   -0.6372    0.0101 C.ar      1 <0>         0.2357
      4 C3         -2.3874    0.0867    0.0195 C.ar      1 <0>        -0.2191
      5 C4         -3.5892   -0.5929    0.0270 C.ar      1 <0>         0.1801
      6 N1         -3.6222   -1.9117    0.0259 N.ar      1 <0>        -0.4603
      7 C5         -2.5196   -2.6368    0.0176 C.ar      1 <0>         0.1776
      8 C6         -1.2748   -2.0317    0.0033 C.ar      1 <0>         0.0675
      9 O2         -0.1418   -2.7839   -0.0111 O.3       1 <0>        -0.2911
     10 C7          0.4104   -3.1495    1.2552 C.3       1 <0>         0.0200
     11 C8         -2.6170   -4.1407    0.0172 C.3       1 <0>        -0.4713
     12 S1         -2.6681   -4.7429   -1.6932 S.o       1 <0>         1.4375
     13 O3         -1.4028   -4.5365   -2.3060 O.2       1 <0>        -0.7841
     14 C9         -2.7802   -6.4933   -1.5256 C.2       1 <0>        -0.0831
     15 N2         -1.7173   -7.3387   -1.4541 N.pl3     1 <0>        -0.5625
     16 H1         -0.7806   -7.0887   -1.4855 H         1 <0>         0.4311
     17 C10        -2.2197   -8.6204   -1.3273 C.ar      1 <0>         0.0536
     18 C11        -1.6396   -9.8764   -1.2128 C.ar      1 <0>        -0.0783
     19 C12        -2.4376  -10.9938   -1.0996 C.ar      1 <0>        -0.1408
     20 C13        -3.8245  -10.8722   -1.0998 C.ar      1 <0>         0.1039
     21 C14        -4.4170   -9.6307   -1.2133 C.ar      1 <0>        -0.0743
     22 C15        -3.6182   -8.4895   -1.3278 C.ar      1 <0>         0.0657
     23 N3         -3.8919   -7.1648   -1.4467 N.2       1 <0>        -0.4016
     24 O4         -4.6003  -11.9833   -0.9878 O.3       1 <0>        -0.3140
     25 C16        -3.9247  -13.2374   -0.8742 C.3       1 <0>         0.4119
     26 F1         -3.1325  -13.4448   -2.0085 F         1 <0>        -0.1956
     27 F2         -3.1137  -13.2287    0.2657 F         1 <0>        -0.1966
     28 H2          1.0053    1.8021    0.0021 H         1 <0>         0.1299
     29 H3         -0.5445    1.7859   -0.8732 H         1 <0>         0.0810
     30 H4         -0.5275    1.7763    0.9067 H         1 <0>         0.0794
     31 H5         -2.3698    1.1666    0.0212 H         1 <0>         0.1954
     32 H6         -4.5152   -0.0371    0.0343 H         1 <0>         0.2238
     33 H7         -0.3207   -3.7319    1.8158 H         1 <0>         0.0564
     34 H8          1.3093   -3.7464    1.1009 H         1 <0>         0.1186
     35 H9          0.6638   -2.2490    1.8147 H         1 <0>         0.0652
     36 H10        -1.7487   -4.5611    0.5246 H         1 <0>         0.1454
     37 H11        -3.5249   -4.4461    0.5372 H         1 <0>         0.1675
     38 H12        -0.5643   -9.9775   -1.2128 H         1 <0>         0.1386
     39 H13        -1.9845  -11.9701   -1.0106 H         1 <0>         0.1495
     40 H14        -5.4933   -9.5415   -1.2136 H         1 <0>         0.1516
     41 H15        -4.6584  -14.0393   -0.7920 H         1 <0>         0.1892
     42 H16        -4.4817   -2.3614    0.0316 H         1 <0>         0.4561
@<TRIPOS>BOND
     1    1    2 1
     2    1   28 1
     3    1   29 1
     4    1   30 1
     5    2    3 1
     6    3    8 ar
     7    3    4 ar
     8    4    5 ar
     9    4   31 1
    10    5    6 ar
    11    5   32 1
    12    6    7 ar
    13    6   42 1
    14    7    8 ar
    15    7   11 1
    16    8    9 1
    17    9   10 1
    18   10   33 1
    19   10   34 1
    20   10   35 1
    21   11   12 1
    22   11   36 1
    23   11   37 1
    24   12   13 2
    25   12   14 1
    26   14   23 2
    27   14   15 1
    28   15   16 1
    29   15   17 1
    30   17   22 ar
    31   17   18 ar
    32   18   19 ar
    33   18   38 1
    34   19   20 ar
    35   19   39 1
    36   20   21 ar
    37   20   24 1
    38   21   22 ar
    39   21   40 1
    40   22   23 1
    41   24   25 1
    42   25   26 1
    43   25   27 1
    44   25   41 1