@<TRIPOS>MOLECULE
ZINC73739046
   38    40     0     0     0
SMALL
USER_CHARGES

@<TRIPOS>ATOM
      1 C1         -0.0173    1.4248    0.0099 C.3       1 <0>         0.0273
      2 O1          0.0021   -0.0041    0.0020 O.3       1 <0>        -0.3094
      3 C2         -1.2011   -0.6379    0.0101 C.ar      1 <0>         0.0894
      4 C3         -2.3743    0.0994    0.0195 C.ar      1 <0>        -0.1711
      5 C4         -3.5965   -0.5465    0.0272 C.ar      1 <0>        -0.1099
      6 C5         -3.6519   -1.9279    0.0261 C.ar      1 <0>        -0.0666
      7 C6         -2.4852   -2.6694    0.0172 C.ar      1 <0>        -0.1625
      8 C7         -1.2569   -2.0283    0.0032 C.ar      1 <0>         0.0995
      9 O2         -0.1083   -2.7563   -0.0116 O.3       1 <0>        -0.3099
     10 C8         -0.2420   -4.1790   -0.0180 C.3       1 <0>         0.0250
     11 C9         -4.9869   -2.6268    0.0350 C.3       1 <0>        -0.0917
     12 C10        -5.4493   -2.8618   -1.4044 C.3       1 <0>         0.1355
     13 N1         -6.7471   -3.5412   -1.3957 N.am      1 <0>        -0.4979
     14 C11        -6.8045   -4.9245   -1.3911 C.2       1 <0>         0.2228
     15 C12        -8.0683   -5.5563   -1.3828 C.2       1 <0>        -0.1664
     16 C13        -9.2187   -4.7646   -1.3795 C.2       1 <0>         0.5520
     17 O3        -10.4369   -5.3351   -1.3711 O.3       1 <0>        -0.6085
     18 N2         -9.0933   -3.4079   -1.3843 N.am      1 <0>        -0.6400
     19 H1         -9.8910   -2.8561   -1.3820 H         1 <0>         0.4253
     20 C14        -7.8848   -2.8204   -1.3866 C.2       1 <0>         0.7067
     21 O4         -7.8166   -1.6062   -1.3857 O.2       1 <0>        -0.5768
     22 N3         -7.8271   -6.8879   -1.3803 N.2       1 <0>        -0.4740
     23 C15        -6.5257   -7.0647   -1.3865 C.2       1 <0>         0.1217
     24 N4         -5.9017   -5.8899   -1.3931 N.2       1 <0>        -0.5531
     25 H2          1.0053    1.8021    0.0021 H         1 <0>         0.0970
     26 H3         -0.5445    1.7859   -0.8732 H         1 <0>         0.0536
     27 H4         -0.5275    1.7763    0.9067 H         1 <0>         0.0530
     28 H5         -2.3338    1.1787    0.0211 H         1 <0>         0.1332
     29 H6         -4.5102    0.0294    0.0345 H         1 <0>         0.1297
     30 H7         -2.5312   -3.7485    0.0167 H         1 <0>         0.1398
     31 H8         -0.7791   -4.4975    0.8754 H         1 <0>         0.0555
     32 H9         -0.7960   -4.4879   -0.9044 H         1 <0>         0.0585
     33 H10         0.7471   -4.6369   -0.0298 H         1 <0>         0.0980
     34 H11        -4.8923   -3.5844    0.5471 H         1 <0>         0.0802
     35 H12        -5.7178   -2.0075    0.5549 H         1 <0>         0.0770
     36 H13        -5.5439   -1.9042   -1.9165 H         1 <0>         0.0882
     37 H14        -4.7184   -3.4811   -1.9243 H         1 <0>         0.0910
     38 H15        -6.0330   -8.0258   -1.3864 H         1 <0>         0.1776
@<TRIPOS>BOND
     1    1    2 1
     2    1   25 1
     3    1   26 1
     4    1   27 1
     5    2    3 1
     6    3    8 ar
     7    3    4 ar
     8    4    5 ar
     9    4   28 1
    10    5    6 ar
    11    5   29 1
    12    6    7 ar
    13    6   11 1
    14    7    8 ar
    15    7   30 1
    16    8    9 1
    17    9   10 1
    18   10   31 1
    19   10   32 1
    20   10   33 1
    21   11   12 1
    22   11   34 1
    23   11   35 1
    24   12   13 1
    25   12   36 1
    26   12   37 1
    27   13   20 am
    28   13   14 1
    29   14   24 2
    30   14   15 1
    31   15   16 2
    32   15   22 1
    33   16   17 1
    34   16   18 1
    35   18   19 1
    36   18   20 am
    37   20   21 2
    38   22   23 2
    39   23   24 1
    40   23   38 1