@<TRIPOS>MOLECULE
ZINC02382400
   18    18     0     0     0
SMALL
USER_CHARGES

@<TRIPOS>ATOM
      1 C1         -0.0184    1.5028    0.0103 C.3       1 <0>        -0.1523
      2 C2          0.0021   -0.0041    0.0020 C.ar      1 <0>         0.0136
      3 C3          0.0058   -0.6886   -1.1991 C.ar      1 <0>        -0.1792
      4 C4          0.0250   -2.0705   -1.2073 C.ar      1 <0>        -0.0239
      5 C5          0.0405   -2.7694   -0.0134 C.ar      1 <0>        -0.1010
      6 C6          0.0368   -2.0851    1.1883 C.ar      1 <0>        -0.0243
      7 C7          0.0229   -0.7019    1.1960 C.ar      1 <0>        -0.0987
      8 Br1         0.0256    0.2347    2.8388 Br        1 <0>        -0.0124
      9 Br2         0.0661   -4.6602   -0.0248 Br        1 <0>        -0.0158
     10 C8         -0.0116    0.0722   -2.4998 C.3       1 <0>         0.5158
     11 F1         -0.0041   -0.8307   -3.5683 F         1 <0>        -0.1712
     12 F2         -1.1656    0.8606   -2.5635 F         1 <0>        -0.1691
     13 F3          1.1187    0.8932   -2.5750 F         1 <0>        -0.1692
     14 H1          1.0042    1.8801    0.0026 H         1 <0>         0.0973
     15 H2         -0.5455    1.8639   -0.8728 H         1 <0>         0.0866
     16 H3         -0.5286    1.8543    0.9071 H         1 <0>         0.0926
     17 H4          0.0275   -2.6048   -2.1458 H         1 <0>         0.1567
     18 H5          0.0489   -2.6304    2.1205 H         1 <0>         0.1545
@<TRIPOS>BOND
     1    1    2 1
     2    1   14 1
     3    1   15 1
     4    1   16 1
     5    2    7 ar
     6    2    3 ar
     7    3    4 ar
     8    3   10 1
     9    4    5 ar
    10    4   17 1
    11    5    6 ar
    12    5    9 1
    13    6    7 ar
    14    6   18 1
    15    7    8 1
    16   10   11 1
    17   10   12 1
    18   10   13 1