@<TRIPOS>MOLECULE
ZINC70460771
   41    42     0     0     0
SMALL
USER_CHARGES

@<TRIPOS>ATOM
      1 C1         -0.0187    1.5258    0.0104 C.3       1 <0>        -0.1720
      2 C2          0.0021   -0.0041    0.0020 C.3       1 <0>        -0.1089
      3 H1         -1.0205   -0.3814    0.0098 H         1 <0>         0.0985
      4 C3          0.7182   -0.4975   -1.2568 C.3       1 <0>        -0.1110
      5 C4          2.1536    0.0321   -1.2676 C.3       1 <0>        -0.1306
      6 C5          2.8936   -0.4747   -0.0281 C.3       1 <0>        -0.1139
      7 C6          2.1775    0.0187    1.2307 C.3       1 <0>        -0.1440
      8 C7          0.7421   -0.5109    1.2415 C.3       1 <0>         0.0314
      9 H2          0.7568   -1.6008    1.2356 H         1 <0>         0.1314
     10 N1          0.0545   -0.0372    2.4502 N.4       1 <0>        -0.3790
     11 C8          0.7591   -0.5320    3.6430 C.3       1 <0>         0.0028
     12 C9          0.2026    0.1870    4.8745 C.3       1 <0>        -0.1463
     13 C10        -1.2997    0.1094    4.8663 C.2       1 <0>         0.3018
     14 O1         -1.9733    0.3818    6.0016 O.3       1 <0>        -0.5997
     15 C11        -1.9876   -0.2205    3.7692 C.2       1 <0>        -0.5069
     16 C12        -1.3225   -0.5443    2.4621 C.3       1 <0>         0.1053
     17 C13        -3.4006   -0.2668    3.8419 C.2       1 <0>         0.5115
     18 O2         -3.9646   -0.0090    4.8887 O.2       1 <0>        -0.5129
     19 O3         -4.1218   -0.5968    2.7504 O.3       1 <0>        -0.3886
     20 C14        -5.5432   -0.6237    2.8959 C.3       1 <0>         0.0431
     21 H3          1.0039    1.9031    0.0027 H         1 <0>         0.0733
     22 H4         -0.5459    1.8868   -0.8726 H         1 <0>         0.0791
     23 H5         -0.5289    1.8773    0.9072 H         1 <0>         0.0552
     24 H6          0.7330   -1.5874   -1.2628 H         1 <0>         0.0720
     25 H7          0.1910   -0.1364   -2.1398 H         1 <0>         0.0798
     26 H8          2.6638   -0.3194   -2.1644 H         1 <0>         0.0731
     27 H9          2.1388    1.1220   -1.2617 H         1 <0>         0.0713
     28 H10         2.9084   -1.5646   -0.0341 H         1 <0>         0.0718
     29 H11         3.9162   -0.0975   -0.0359 H         1 <0>         0.0788
     30 H12         2.7046   -0.3424    2.1137 H         1 <0>         0.0863
     31 H13         2.1627    1.1086    1.2367 H         1 <0>         0.0864
     32 H14         0.5993   -1.6056    3.7431 H         1 <0>         0.1246
     33 H15         1.8253   -0.3257    3.5498 H         1 <0>         0.1220
     34 H16         0.5859   -0.2890    5.7771 H         1 <0>         0.1149
     35 H17         0.5124    1.2319    4.8558 H         1 <0>         0.0947
     36 H18        -1.8833   -0.0843    1.6485 H         1 <0>         0.1066
     37 H19        -1.3100   -1.6251    2.3218 H         1 <0>         0.0967
     38 H20        -6.0003   -0.9027    1.9465 H         1 <0>         0.0866
     39 H21        -5.8166   -1.3524    3.6589 H         1 <0>         0.0500
     40 H22        -5.8967    0.3636    3.1931 H         1 <0>         0.0496
     41 H23         0.0426    0.9717    2.4581 H         1 <0>         0.4153
@<TRIPOS>BOND
     1    1    2 1
     2    1   21 1
     3    1   22 1
     4    1   23 1
     5    2    3 1
     6    2    8 1
     7    2    4 1
     8    4    5 1
     9    4   24 1
    10    4   25 1
    11    5    6 1
    12    5   26 1
    13    5   27 1
    14    6    7 1
    15    6   28 1
    16    6   29 1
    17    7    8 1
    18    7   30 1
    19    7   31 1
    20    8    9 1
    21    8   10 1
    22   10   16 1
    23   10   11 1
    24   10   41 1
    25   11   12 1
    26   11   32 1
    27   11   33 1
    28   12   13 1
    29   12   34 1
    30   12   35 1
    31   13   14 1
    32   13   15 2
    33   15   16 1
    34   15   17 1
    35   16   36 1
    36   16   37 1
    37   17   18 2
    38   17   19 1
    39   19   20 1
    40   20   38 1
    41   20   39 1
    42   20   40 1